Version 4
SHEET 1 1428 680
WIRE 688 -32 688 -64
WIRE 176 64 64 64
WIRE 288 64 256 64
WIRE 416 64 368 64
WIRE 624 64 624 -64
WIRE 624 64 608 64
WIRE 1216 64 1168 64
WIRE -224 112 -224 80
WIRE -48 112 -48 64
WIRE 64 112 64 64
WIRE 688 112 688 48
WIRE 688 112 608 112
WIRE 752 112 688 112
WIRE 752 144 752 112
WIRE 416 160 352 160
WIRE 640 160 608 160
WIRE 272 208 272 128
WIRE -224 240 -224 192
WIRE -48 240 -48 192
WIRE 64 240 64 192
WIRE 352 240 352 160
WIRE 640 240 640 160
WIRE 752 240 752 224
WIRE 64 368 64 320
FLAG 64 368 0
FLAG 352 240 0
FLAG 640 240 0
FLAG -224 240 0
FLAG 688 -64 3V3
FLAG -224 80 3V3
FLAG 1216 64 GPIO
IOPIN 1216 64 Out
FLAG -48 240 0
FLAG 272 208 0
FLAG 624 -64 3V3
FLAG 752 240 0
SYMBOL voltage 64 224 R0
WINDOW 3 24 96 Invisible 2
WINDOW 123 24 44 Left 2
WINDOW 39 0 0 Left 0
SYMATTR Value PWL(0 0 20m 12 40m 0)
SYMATTR Value2 AC 1
SYMATTR InstName V1
SYMBOL res 272 48 R90
WINDOW 0 0 56 VBottom 2
WINDOW 3 32 56 VTop 2
SYMATTR InstName R1
SYMATTR Value 2.2k
SYMBOL voltage -224 96 R0
WINDOW 123 0 0 Left 0
WINDOW 39 0 0 Left 0
SYMATTR InstName V2
SYMATTR Value 3.3
SYMBOL Digital\\schmtinv 1104 0 R0
WINDOW 3 9 3 Left 2
SYMATTR Value Vhigh=3.3 Vt=1.5 Vh=0.4
SYMATTR InstName A1
SYMBOL res 384 48 R90
WINDOW 0 0 56 VBottom 2
WINDOW 3 32 56 VTop 2
SYMATTR InstName R4
SYMATTR Value 2.2k
SYMBOL TLP2366 512 112 R0
SYMATTR InstName U2
SYMBOL voltage 64 96 R0
WINDOW 123 0 0 Left 0
WINDOW 39 0 0 Left 0
SYMATTR InstName V3
SYMATTR Value SINE(0 0.7 5000)
SYMBOL res 736 128 R0
SYMATTR InstName R2
SYMATTR Value 10k
TEXT -208 -200 Left 2 !.tran 0 40ms 0 0.1ms
TEXT -208 -152 Left 2 ;.ac oct 100 10 10k
TEXT -208 -112 Left 2 ;.step param T list 1m 5m 10m
TEXT -208 -72 Left 2 ;.step param V_init linear 0v 3v 10
