Version 4
SHEET 1 1428 680
WIRE 688 -32 688 -64
WIRE 176 64 -48 64
WIRE 416 64 256 64
WIRE 688 64 688 48
WIRE 688 64 608 64
WIRE 736 64 688 64
WIRE 848 64 816 64
WIRE 1104 64 848 64
WIRE 1216 64 1168 64
WIRE -224 112 -224 80
WIRE -48 112 -48 64
WIRE 848 112 848 64
WIRE 416 160 352 160
WIRE 640 160 608 160
WIRE -224 240 -224 192
WIRE -48 240 -48 192
WIRE 64 240 64 192
WIRE 352 240 352 160
WIRE 640 240 640 160
WIRE 848 256 848 176
FLAG 64 240 0
FLAG 352 240 0
FLAG 640 240 0
FLAG -224 240 0
FLAG 688 -64 3V3
FLAG -224 80 3V3
FLAG 1216 64 GPIO
IOPIN 1216 64 Out
FLAG 848 256 0
FLAG -48 240 0
SYMBOL voltage 64 96 R0
WINDOW 3 24 96 Invisible 2
WINDOW 123 0 0 Left 0
WINDOW 39 0 0 Left 0
SYMATTR Value SINE(6 6 10 0 0 100ms 100)
SYMATTR InstName V1
SYMBOL Optos\\PC817A 512 112 R0
SYMATTR InstName U1
SYMBOL res 272 48 R90
WINDOW 0 0 56 VBottom 2
WINDOW 3 32 56 VTop 2
SYMATTR InstName R1
SYMATTR Value 5k
SYMBOL voltage -224 96 R0
WINDOW 123 0 0 Left 0
WINDOW 39 0 0 Left 0
SYMATTR InstName V2
SYMATTR Value 3.3
SYMBOL res 672 -48 R0
SYMATTR InstName R2
SYMATTR Value 5k
SYMBOL cap 832 112 R0
SYMATTR InstName C2
SYMATTR Value 1µ
SYMBOL res 832 48 R90
WINDOW 0 0 56 VBottom 2
WINDOW 3 32 56 VTop 2
SYMATTR InstName R3
SYMATTR Value 10k
SYMBOL voltage -48 96 R0
WINDOW 3 24 96 Invisible 2
WINDOW 123 0 0 Left 0
WINDOW 39 0 0 Left 0
SYMATTR Value PULSE(0 12 10ms 0 0 100ms 100ms 1)
SYMATTR InstName V3
SYMBOL Digital\\schmtinv 1104 0 R0
WINDOW 3 9 3 Left 2
SYMATTR Value Vhigh=3.3 Vt=1.5 Vh=0.4
SYMATTR InstName A1
TEXT 24 264 Left 2 !.tran 0 250ms 0 0.1ms
